46

C -0.959682 -0.131939 -2.471746
C -0.224940 -0.087158 -1.249050
C 1.190364 -0.012750 -1.392023
C 1.807756 0.016647 -2.623049
C 1.057521 -0.026603 -3.818497
C -0.363856 -0.104108 -3.693991
C -0.885818 -0.118435 0.000000
C -0.224940 -0.087158 1.249050
C 1.190364 -0.012750 1.392023
S 2.271619 0.051737 0.000000
C 1.807756 0.016647 2.623049
C 1.057521 -0.026603 3.818497
C -0.363856 -0.104108 3.693991
C -0.959682 -0.131939 2.471746
C -2.368754 -0.189014 0.000000
S -3.338972 1.247403 0.000000
C -4.794170 0.334332 0.000000
C -4.548339 -1.006088 0.000000
C -3.158790 -1.306166 0.000000
N 1.653034 0.003186 5.028911
C 3.106378 0.081845 5.138274
N 1.653034 0.003186 -5.028911
C 3.106378 0.081845 -5.138274
C 0.859581 -0.041628 6.255634
C 0.859581 -0.041628 -6.255634
H 2.884669 0.074067 2.660428
H -0.983637 -0.141920 4.575916
H -2.036199 -0.193142 2.419006
H -2.036199 -0.193142 -2.419006
H -0.983637 -0.141920 -4.575916
H 2.884669 0.074067 -2.660428
H 3.586758 -0.780429 4.669484
H 3.383376 0.094185 6.187413
H 3.490355 0.993421 4.673890
H 0.178769 0.809780 6.320862
H 1.529285 -0.004090 7.108741
H 0.278322 -0.963948 6.320666
H 3.383376 0.094185 -6.187413
H 3.586758 -0.780429 -4.669484
H 3.490355 0.993421 -4.673890
H 1.529285 -0.004090 -7.108741
H 0.178769 0.809780 -6.320862
H 0.278322 -0.963948 -6.320666
H -5.325883 -1.756055 0.000000
H -5.746057 0.840518 0.000000
H -2.758546 -2.310606 0.000000
